Circuit: * D:\MeineDatein\Elektronik\Heimautomation\Heizung\Optolink\OptolinkDuoBlock\Simulation\OptolinkDuo.asc

Limiting rise time of source v3 to 0.01
Limiting fall time of source v3 to 0.01
Limiting rise time of source v2 to 0.01
Limiting fall time of source v2 to 0.01
Direct Newton iteration for .op point succeeded.

Date: Tue Jul 28 22:51:58 2020
Total elapsed time: 0.127 seconds.

tnom = 27
temp = 27
method = modified trap
totiter = 5489
traniter = 5442
tranpoints = 2255
accept = 1933
rejected = 322
matrix size = 32
fillins = 13
solver = Normal
Matrix Compiler1: 2.47 KB object code size  1.0/0.4/[0.3]
Matrix Compiler2: off  [0.3]/0.5/0.3

