Circuit: * D:\MeineDatein\Elektronik\Heimautomation\Heizung\Optolink\OptolinkDuoBlock\Simulation\OptolinkDuo_op.asc

Limiting rise time of source v3 to 0.01
Limiting fall time of source v3 to 0.01
Limiting rise time of source v2 to 0.01
Limiting fall time of source v2 to 0.01
Direct Newton iteration for .op point succeeded.

Date: Sat Aug 01 23:51:47 2020
Total elapsed time: 0.126 seconds.

tnom = 27
temp = 27
method = modified trap
totiter = 4405
traniter = 4379
tranpoints = 1948
accept = 1719
rejected = 229
matrix size = 36
fillins = 6
solver = Normal
Matrix Compiler1: 2.31 KB object code size  0.9/0.4/[0.3]
Matrix Compiler2: off  [0.3]/0.5/0.4

