Circuit: * D:\MeineDatein\Elektronik\Heimautomation\Heizung\Optolink\OptolinkDuoBlock\Simulation\OptolinkDuoBlock_op.asc

Limiting rise time of source v3 to 0.01
Limiting fall time of source v3 to 0.01
Limiting rise time of source v2 to 0.01
Limiting fall time of source v2 to 0.01
Direct Newton iteration failed to find .op point.  (Use ".option noopiter" to skip.)
Starting Gmin stepping
Gmin = 10
Gmin = 1.07374
Gmin = 0.115292
Gmin = 0.0123794
Gmin = 0.00132923
Gmin = 0.000142725
Gmin = 1.5325e-005
Gmin = 1.6455e-006
Gmin = 1.76685e-007
Gmin = 1.89714e-008
Gmin = 2.03704e-009
Gmin = 2.18725e-010
Gmin = 2.34854e-011
Gmin = 2.52173e-012
Gmin = 2.70769e-013
Gmin = 0
Gmin stepping succeeded in finding the operating point.


Date: Sun Aug 02 00:22:26 2020
Total elapsed time: 0.168 seconds.

tnom = 27
temp = 27
method = modified trap
totiter = 7076
traniter = 6611
tranpoints = 2773
accept = 2310
rejected = 463
matrix size = 46
fillins = 8
solver = Normal
Matrix Compiler1: 3.16 KB object code size  1.3/0.5/[0.4]
Matrix Compiler2: 3.94 KB object code size  0.6/0.7/[0.5]

